/*--------------------------------*- C++ -*----------------------------------*\
| =========                 |                                                 |
| \\      /  F ield         | OpenFOAM: The Open Source CFD Toolbox           |
|  \\    /   O peration     | Version:  4.0                                   |
|   \\  /    A nd           | Web:      www.OpenFOAM.org                      |
|    \\/     M anipulation  |                                                 |
\*---------------------------------------------------------------------------*/
FoamFile
{
    version     2.0;
    format      ascii;
    class       dictionary;
    object      topoSetDict;
}

// * * * * * * * * * * * * * * * * * * * * * * * * * * * * * * * * * * * * * //

#include "blockMeshDict.cfg"

lateral         #calc "$width / 4";
mlateral        #calc "-$lateral";
top             #calc "0.8 * $height";
bottom          #calc "0.2 * $height";

actions
(
    {
        name    cellsToRefine;
        type    cellSet;
        action  new;
        source  boxToCell;
        sourceInfo
        {
            box 
                ($bottom $mlateral $mlateral)
                ($top     $lateral  $lateral);
        }
    }
);

// ************************************************************************* //
